# generated using pymatgen
data_PrSi6(BiPd10)2
_symmetry_space_group_name_H-M   'P 1'
_cell_length_a   8.75127744
_cell_length_b   8.75127694
_cell_length_c   8.75127800
_cell_angle_alpha   60.00000354
_cell_angle_beta   60.00000546
_cell_angle_gamma   60.00000390
_symmetry_Int_Tables_number   1
_chemical_formula_structural   PrSi6(BiPd10)2
_chemical_formula_sum   'Pr1 Si6 Bi2 Pd20'
_cell_volume   473.91385406
_cell_formula_units_Z   1
loop_
 _symmetry_equiv_pos_site_id
 _symmetry_equiv_pos_as_xyz
  1  'x, y, z'
loop_
 _atom_site_type_symbol
 _atom_site_label
 _atom_site_symmetry_multiplicity
 _atom_site_fract_x
 _atom_site_fract_y
 _atom_site_fract_z
 _atom_site_occupancy
  Pr  Pr0  1  0.750000  0.750000  0.750000  1
  Si  Si1  1  0.731849  0.268151  0.268151  1
  Si  Si2  1  0.268151  0.731849  0.731849  1
  Si  Si3  1  0.268151  0.731849  0.268151  1
  Si  Si4  1  0.731849  0.268151  0.731849  1
  Si  Si5  1  0.268151  0.268151  0.731849  1
  Si  Si6  1  0.731849  0.731849  0.268151  1
  Bi  Bi7  1  0.250000  0.250000  0.250000  1
  Bi  Bi8  1  0.000000  0.000000  0.000000  1
  Pd  Pd9  1  0.380693  0.380693  0.380693  1
  Pd  Pd10  1  0.611643  0.611643  0.611643  1
  Pd  Pd11  1  0.380693  0.380693  0.857922  1
  Pd  Pd12  1  0.380693  0.857922  0.380693  1
  Pd  Pd13  1  0.611643  0.611643  0.165068  1
  Pd  Pd14  1  0.611643  0.165068  0.611643  1
  Pd  Pd15  1  0.857922  0.380693  0.380693  1
  Pd  Pd16  1  0.165068  0.611643  0.611643  1
  Pd  Pd17  1  0.349937  0.996544  0.996544  1
  Pd  Pd18  1  0.656974  0.996544  0.996544  1
  Pd  Pd19  1  0.996544  0.349937  0.656974  1
  Pd  Pd20  1  0.996544  0.656974  0.349937  1
  Pd  Pd21  1  0.996544  0.349937  0.996544  1
  Pd  Pd22  1  0.656974  0.996544  0.349937  1
  Pd  Pd23  1  0.996544  0.656974  0.996544  1
  Pd  Pd24  1  0.349937  0.996544  0.656974  1
  Pd  Pd25  1  0.996544  0.996544  0.349937  1
  Pd  Pd26  1  0.996544  0.996544  0.656974  1
  Pd  Pd27  1  0.656974  0.349937  0.996544  1
  Pd  Pd28  1  0.349937  0.656974  0.996544  1
