# generated using pymatgen
data_Tb3Si2Ag3Pb
_symmetry_space_group_name_H-M   'P 1'
_cell_length_a   7.27847000
_cell_length_b   7.27847057
_cell_length_c   4.32906900
_cell_angle_alpha   90.00000000
_cell_angle_beta   90.00000000
_cell_angle_gamma   120.00000651
_symmetry_Int_Tables_number   1
_chemical_formula_structural   Tb3Si2Ag3Pb
_chemical_formula_sum   'Tb3 Si2 Ag3 Pb1'
_cell_volume   198.61193278
_cell_formula_units_Z   1
loop_
 _symmetry_equiv_pos_site_id
 _symmetry_equiv_pos_as_xyz
  1  'x, y, z'
loop_
 _atom_site_type_symbol
 _atom_site_label
 _atom_site_symmetry_multiplicity
 _atom_site_fract_x
 _atom_site_fract_y
 _atom_site_fract_z
 _atom_site_occupancy
  Tb  Tb0  1  0.431887  0.431887  0.000000  1
  Tb  Tb1  1  0.568113  0.000000  0.000000  1
  Tb  Tb2  1  0.000000  0.568113  0.000000  1
  Si  Si3  1  0.666667  0.333333  0.500000  1
  Si  Si4  1  0.333333  0.666667  0.500000  1
  Ag  Ag5  1  0.727336  0.727336  0.500000  1
  Ag  Ag6  1  0.272664  0.000000  0.500000  1
  Ag  Ag7  1  0.000000  0.272664  0.500000  1
  Pb  Pb8  1  0.000000  0.000000  0.000000  1
