# generated using pymatgen
data_LiSi6(Pd10Pb)2
_symmetry_space_group_name_H-M   'P 1'
_cell_length_a   8.68226607
_cell_length_b   8.68226632
_cell_length_c   8.68226600
_cell_angle_alpha   60.00000121
_cell_angle_beta   60.00000027
_cell_angle_gamma   60.00000332
_symmetry_Int_Tables_number   1
_chemical_formula_structural   LiSi6(Pd10Pb)2
_chemical_formula_sum   'Li1 Si6 Pd20 Pb2'
_cell_volume   462.79035479
_cell_formula_units_Z   1
loop_
 _symmetry_equiv_pos_site_id
 _symmetry_equiv_pos_as_xyz
  1  'x, y, z'
loop_
 _atom_site_type_symbol
 _atom_site_label
 _atom_site_symmetry_multiplicity
 _atom_site_fract_x
 _atom_site_fract_y
 _atom_site_fract_z
 _atom_site_occupancy
  Li  Li0  1  0.000000  0.000000  0.000000  1
  Si  Si1  1  0.731640  0.268360  0.268360  1
  Si  Si2  1  0.268360  0.731640  0.731640  1
  Si  Si3  1  0.268360  0.731640  0.268360  1
  Si  Si4  1  0.731640  0.268360  0.731640  1
  Si  Si5  1  0.268360  0.268360  0.731640  1
  Si  Si6  1  0.731640  0.731640  0.268360  1
  Pd  Pd7  1  0.383102  0.383102  0.383102  1
  Pd  Pd8  1  0.616898  0.616898  0.616898  1
  Pd  Pd9  1  0.383102  0.383102  0.850694  1
  Pd  Pd10  1  0.383102  0.850694  0.383102  1
  Pd  Pd11  1  0.616898  0.616898  0.149306  1
  Pd  Pd12  1  0.616898  0.149306  0.616898  1
  Pd  Pd13  1  0.850694  0.383102  0.383102  1
  Pd  Pd14  1  0.149306  0.616898  0.616898  1
  Pd  Pd15  1  0.341279  0.000000  0.000000  1
  Pd  Pd16  1  0.658721  0.000000  0.000000  1
  Pd  Pd17  1  0.000000  0.341279  0.658721  1
  Pd  Pd18  1  0.000000  0.658721  0.341279  1
  Pd  Pd19  1  0.000000  0.341279  0.000000  1
  Pd  Pd20  1  0.658721  0.000000  0.341279  1
  Pd  Pd21  1  0.000000  0.658721  0.000000  1
  Pd  Pd22  1  0.341279  0.000000  0.658721  1
  Pd  Pd23  1  0.000000  0.000000  0.341279  1
  Pd  Pd24  1  0.000000  0.000000  0.658721  1
  Pd  Pd25  1  0.658721  0.341279  0.000000  1
  Pd  Pd26  1  0.341279  0.658721  0.000000  1
  Pb  Pb27  1  0.250000  0.250000  0.250000  1
  Pb  Pb28  1  0.750000  0.750000  0.750000  1
