# generated using pymatgen
data_Tm5AlBi2Se
_symmetry_space_group_name_H-M   'P 1'
_cell_length_a   9.08827400
_cell_length_b   9.08827356
_cell_length_c   6.61114300
_cell_angle_alpha   90.00000000
_cell_angle_beta   90.00000000
_cell_angle_gamma   120.17731791
_symmetry_Int_Tables_number   1
_chemical_formula_structural   Tm5AlBi2Se
_chemical_formula_sum   'Tm10 Al2 Bi4 Se2'
_cell_volume   472.05350195
_cell_formula_units_Z   2
loop_
 _symmetry_equiv_pos_site_id
 _symmetry_equiv_pos_as_xyz
  1  'x, y, z'
loop_
 _atom_site_type_symbol
 _atom_site_label
 _atom_site_symmetry_multiplicity
 _atom_site_fract_x
 _atom_site_fract_y
 _atom_site_fract_z
 _atom_site_occupancy
  Tm  Tm0  1  0.669190  0.326244  0.008034  1
  Tm  Tm1  1  0.326244  0.669190  0.008034  1
  Tm  Tm2  1  0.326244  0.669190  0.491966  1
  Tm  Tm3  1  0.669190  0.326244  0.491966  1
  Tm  Tm4  1  0.747083  0.747083  0.750000  1
  Tm  Tm5  1  0.253685  0.000416  0.750000  1
  Tm  Tm6  1  0.000416  0.253685  0.750000  1
  Tm  Tm7  1  0.250681  0.250681  0.250000  1
  Tm  Tm8  1  0.748420  0.012995  0.250000  1
  Tm  Tm9  1  0.012995  0.748420  0.250000  1
  Al  Al10  1  0.396887  0.000610  0.250000  1
  Al  Al11  1  0.000610  0.396887  0.250000  1
  Bi  Bi12  1  0.395120  0.395120  0.750000  1
  Bi  Bi13  1  0.601405  0.997302  0.750000  1
  Bi  Bi14  1  0.997302  0.601405  0.750000  1
  Bi  Bi15  1  0.608801  0.608801  0.250000  1
  Se  Se16  1  0.997864  0.997864  0.999472  1
  Se  Se17  1  0.997864  0.997864  0.500528  1
