# generated using pymatgen
data_Ce10AlPb7
_symmetry_space_group_name_H-M   'P 1'
_cell_length_a   9.77791400
_cell_length_b   9.77791407
_cell_length_c   6.64714000
_cell_angle_alpha   90.00000000
_cell_angle_beta   90.00000000
_cell_angle_gamma   119.99999977
_symmetry_Int_Tables_number   1
_chemical_formula_structural   Ce10AlPb7
_chemical_formula_sum   'Ce10 Al1 Pb7'
_cell_volume   550.37397291
_cell_formula_units_Z   1
loop_
 _symmetry_equiv_pos_site_id
 _symmetry_equiv_pos_as_xyz
  1  'x, y, z'
loop_
 _atom_site_type_symbol
 _atom_site_label
 _atom_site_symmetry_multiplicity
 _atom_site_fract_x
 _atom_site_fract_y
 _atom_site_fract_z
 _atom_site_occupancy
  Ce  Ce0  1  0.000000  0.723815  0.758133  1
  Ce  Ce1  1  0.276185  0.276185  0.758133  1
  Ce  Ce2  1  0.333333  0.666667  0.500000  1
  Ce  Ce3  1  0.666667  0.333333  0.500000  1
  Ce  Ce4  1  0.723815  0.723815  0.241867  1
  Ce  Ce5  1  0.723815  0.000000  0.758133  1
  Ce  Ce6  1  0.000000  0.276185  0.241867  1
  Ce  Ce7  1  0.276185  0.000000  0.241867  1
  Ce  Ce8  1  0.333333  0.666667  0.000000  1
  Ce  Ce9  1  0.666667  0.333333  0.000000  1
  Al  Al10  1  0.000000  0.000000  0.000000  1
  Pb  Pb11  1  0.623167  0.623167  0.746671  1
  Pb  Pb12  1  0.000000  0.376833  0.746671  1
  Pb  Pb13  1  0.376833  0.000000  0.746671  1
  Pb  Pb14  1  0.623167  0.000000  0.253329  1
  Pb  Pb15  1  0.376833  0.376833  0.253329  1
  Pb  Pb16  1  0.000000  0.623167  0.253329  1
  Pb  Pb17  1  0.000000  0.000000  0.500000  1
