# generated using pymatgen
data_YNb8CdS16
_symmetry_space_group_name_H-M   'P 1'
_cell_length_a   6.74500800
_cell_length_b   6.74500826
_cell_length_c   13.81760700
_cell_angle_alpha   90.00000000
_cell_angle_beta   90.00000000
_cell_angle_gamma   120.00000853
_symmetry_Int_Tables_number   1
_chemical_formula_structural   YNb8CdS16
_chemical_formula_sum   'Y1 Nb8 Cd1 S16'
_cell_volume   544.41287280
_cell_formula_units_Z   1
loop_
 _symmetry_equiv_pos_site_id
 _symmetry_equiv_pos_as_xyz
  1  'x, y, z'
loop_
 _atom_site_type_symbol
 _atom_site_label
 _atom_site_symmetry_multiplicity
 _atom_site_fract_x
 _atom_site_fract_y
 _atom_site_fract_z
 _atom_site_occupancy
  Y  Y0  1  0.000000  0.000000  0.500000  1
  Nb  Nb1  1  0.505312  0.494688  0.753011  1
  Nb  Nb2  1  0.010622  0.505312  0.246989  1
  Nb  Nb3  1  0.494688  0.989378  0.246989  1
  Nb  Nb4  1  0.505312  0.010622  0.753011  1
  Nb  Nb5  1  0.989378  0.494688  0.753011  1
  Nb  Nb6  1  0.494688  0.505312  0.246989  1
  Nb  Nb7  1  0.000000  0.000000  0.750865  1
  Nb  Nb8  1  0.000000  0.000000  0.249135  1
  Cd  Cd9  1  0.000000  0.000000  0.000000  1
  S  S10  1  0.831580  0.168420  0.360975  1
  S  S11  1  0.831580  0.663159  0.360975  1
  S  S12  1  0.336841  0.168420  0.360975  1
  S  S13  1  0.664437  0.832218  0.864441  1
  S  S14  1  0.168420  0.336841  0.639025  1
  S  S15  1  0.167782  0.832218  0.864441  1
  S  S16  1  0.167782  0.335563  0.864441  1
  S  S17  1  0.832218  0.167782  0.135559  1
  S  S18  1  0.335563  0.167782  0.135559  1
  S  S19  1  0.663159  0.831580  0.639025  1
  S  S20  1  0.333333  0.666667  0.132225  1
  S  S21  1  0.666667  0.333333  0.637113  1
  S  S22  1  0.666667  0.333333  0.867775  1
  S  S23  1  0.333333  0.666667  0.362887  1
  S  S24  1  0.832218  0.664437  0.135559  1
  S  S25  1  0.168420  0.831580  0.639025  1
