# generated using pymatgen
data_Rb4TmUI12
_symmetry_space_group_name_H-M   'P 1'
_cell_length_a   8.39398500
_cell_length_b   8.39398500
_cell_length_c   12.47406400
_cell_angle_alpha   90.00000000
_cell_angle_beta   90.00000000
_cell_angle_gamma   90.00000000
_symmetry_Int_Tables_number   1
_chemical_formula_structural   Rb4TmUI12
_chemical_formula_sum   'Rb4 Tm1 U1 I12'
_cell_volume   878.90987804
_cell_formula_units_Z   1
loop_
 _symmetry_equiv_pos_site_id
 _symmetry_equiv_pos_as_xyz
  1  'x, y, z'
loop_
 _atom_site_type_symbol
 _atom_site_label
 _atom_site_symmetry_multiplicity
 _atom_site_fract_x
 _atom_site_fract_y
 _atom_site_fract_z
 _atom_site_occupancy
  Rb  Rb0  1  0.500000  0.000000  0.799398  1
  Rb  Rb1  1  0.500000  0.000000  0.200602  1
  Rb  Rb2  1  0.000000  0.500000  0.200602  1
  Rb  Rb3  1  0.000000  0.500000  0.799398  1
  Tm  Tm4  1  0.000000  0.000000  0.000000  1
  U  U5  1  0.500000  0.500000  0.500000  1
  I  I6  1  0.747720  0.251951  0.000000  1
  I  I7  1  0.252280  0.748049  0.000000  1
  I  I8  1  0.500000  0.500000  0.262883  1
  I  I9  1  0.316766  0.201878  0.500000  1
  I  I10  1  0.251951  0.252280  0.000000  1
  I  I11  1  0.798122  0.316766  0.500000  1
  I  I12  1  0.000000  0.000000  0.240620  1
  I  I13  1  0.683234  0.798122  0.500000  1
  I  I14  1  0.201878  0.683234  0.500000  1
  I  I15  1  0.500000  0.500000  0.737117  1
  I  I16  1  0.748049  0.747720  0.000000  1
  I  I17  1  0.000000  0.000000  0.759380  1
