# generated using pymatgen
data_RbTa(MoS3)2
_symmetry_space_group_name_H-M   'P 1'
_cell_length_a   5.60583100
_cell_length_b   5.60583293
_cell_length_c   17.22032200
_cell_angle_alpha   90.00000000
_cell_angle_beta   90.00000000
_cell_angle_gamma   119.99999449
_symmetry_Int_Tables_number   1
_chemical_formula_structural   RbTa(MoS3)2
_chemical_formula_sum   'Rb2 Ta2 Mo4 S12'
_cell_volume   468.65372728
_cell_formula_units_Z   2
loop_
 _symmetry_equiv_pos_site_id
 _symmetry_equiv_pos_as_xyz
  1  'x, y, z'
loop_
 _atom_site_type_symbol
 _atom_site_label
 _atom_site_symmetry_multiplicity
 _atom_site_fract_x
 _atom_site_fract_y
 _atom_site_fract_z
 _atom_site_occupancy
  Rb  Rb0  1  0.000000  0.000000  0.000000  1
  Rb  Rb1  1  0.000000  0.000000  0.500000  1
  Ta  Ta2  1  0.666667  0.333333  0.250000  1
  Ta  Ta3  1  0.333333  0.666667  0.750000  1
  Mo  Mo4  1  0.000000  0.000000  0.750000  1
  Mo  Mo5  1  0.000000  0.000000  0.250000  1
  Mo  Mo6  1  0.333333  0.666667  0.250000  1
  Mo  Mo7  1  0.666667  0.333333  0.750000  1
  S  S8  1  0.329987  0.994781  0.159199  1
  S  S9  1  0.005219  0.335206  0.159199  1
  S  S10  1  0.664794  0.670013  0.159199  1
  S  S11  1  0.335206  0.329987  0.659199  1
  S  S12  1  0.664794  0.670013  0.340801  1
  S  S13  1  0.670013  0.005219  0.659199  1
  S  S14  1  0.994781  0.664794  0.659199  1
  S  S15  1  0.994781  0.664794  0.840801  1
  S  S16  1  0.335206  0.329987  0.840801  1
  S  S17  1  0.005219  0.335206  0.340801  1
  S  S18  1  0.329987  0.994781  0.340801  1
  S  S19  1  0.670013  0.005219  0.840801  1
